@<TRIPOS>MOLECULE
CHA
   29    28     1     0     0
SMALL
bcc


@<TRIPOS>ATOM
      1 C           21.9800    -2.0720   -12.4800 c3         1 CHA       0.121100
      2 C1          21.9850    -0.7050   -11.7700 c3         1 CHA       0.082100
      3 C2          23.3000     0.0440   -11.9860 c3         1 CHA       0.146400
      4 C3          22.0430    -2.0200   -14.0130 c3         1 CHA       0.004100
      5 C4          23.3120    -2.5970   -14.6400 c          1 CHA       0.509100
      6 C5          23.1920    -3.9460   -15.3220 c3         1 CHA       0.047400
      7 O           20.8560    -2.8370   -12.0530 oh         1 CHA      -0.595800
      8 O1          20.9260     0.1080   -12.2730 oh         1 CHA      -0.625800
      9 O2          23.0170     1.4300   -12.1470 os         1 CHA      -0.570200
     10 O3          23.9350     3.4550   -13.5530 o          1 CHA      -0.775300
     11 O4          21.8390     2.0500   -14.3140 oh         1 CHA      -0.788400
     12 O5          24.1290     0.9610   -14.3650 oh         1 CHA      -0.788400
     13 O6          20.9280    -2.7370   -14.5310 oh         1 CHA      -0.598800
     14 O7          24.3910    -2.0060   -14.5720 o          1 CHA      -0.525100
     15 O8          22.5480    -3.8100   -16.5720 oh         1 CHA      -0.588800
     16 P           23.2850     2.1030   -13.5920 p5         1 CHA       1.649500
     17 H           20.1560    -2.7380   -12.7210 ho         1 CHA       0.426000
     18 H1          21.2270     0.5070   -13.1070 ho         1 CHA       0.430000
     19 H2          21.4520     1.1760   -14.5370 ho         1 CHA       0.492500
     20 H3          24.2190     1.0160   -15.3400 ho         1 CHA       0.492500
     21 H4          20.6980    -3.4300   -13.8890 ho         1 CHA       0.426000
     22 H5          22.0750    -2.9600   -16.5680 ho         1 CHA       0.424000
     23 H6          22.8940    -2.5440   -12.1880 h1         1 CHA       0.105700
     24 H7          21.8590    -0.8940   -10.7240 h1         1 CHA       0.081700
     25 H8          23.7860    -0.3280   -12.8640 h1         1 CHA       0.074200
     26 H9          23.9430    -0.1000   -11.1430 h1         1 CHA       0.074200
     27 H10         22.0360    -0.9810   -14.2680 h1         1 CHA       0.118700
     28 H11         22.6220    -4.6050   -14.7010 h1         1 CHA       0.076200
     29 H12         24.1730    -4.3450   -15.4780 h1         1 CHA       0.076200
@<TRIPOS>BOND
     1     1     2 1   
     2     1     4 1   
     3     1     7 1   
     4     1    23 1   
     5     2     3 1   
     6     2     8 1   
     7     2    24 1   
     8     3     9 1   
     9     3    25 1   
    10     3    26 1   
    11     4     5 1   
    12     4    13 1   
    13     4    27 1   
    14     5     6 1   
    15     5    14 2   
    16     6    15 1   
    17     6    28 1   
    18     6    29 1   
    19     7    17 1   
    20     8    18 1   
    21     9    16 1   
    22    10    16 2   
    23    11    16 1   
    24    11    19 1   
    25    12    16 1   
    26    12    20 1   
    27    13    21 1   
    28    15    22 1   
@<TRIPOS>SUBSTRUCTURE
     1 CHA         1 TEMP              0 ****  ****    0 ROOT
