@<TRIPOS>MOLECULE
LigA.H.pdb
 29 28 0 0 0
SMALL
GASTEIGER

@<TRIPOS>ATOM
      1  C         21.9800   -2.0720  -12.4800 C.3     1  UNL1        0.1159
      2  C         21.9850   -0.7050  -11.7700 C.3     1  UNL1        0.1077
      3  C         23.3000    0.0440  -11.9860 C.3     1  UNL1        0.0875
      4  C         22.0430   -2.0200  -14.0130 C.3     1  UNL1        0.1434
      5  C         23.3120   -2.5970  -14.6400 C.2     1  UNL1        0.1892
      6  C         23.1920   -3.9460  -15.3220 C.3     1  UNL1        0.1049
      7  O         20.8560   -2.8370  -12.0530 O.3     1  UNL1       -0.3861
      8  O         20.9260    0.1080  -12.2730 O.3     1  UNL1       -0.3868
      9  O         23.0170    1.4300  -12.1470 O.3     1  UNL1       -0.2841
     10  O         23.9350    3.4550  -13.5530 O.2     1  UNL1       -0.2275
     11  O         21.8390    2.0500  -14.3140 O.3     1  UNL1       -0.3026
     12  O         24.1290    0.9610  -14.3650 O.3     1  UNL1       -0.3026
     13  O         20.9280   -2.7370  -14.5310 O.3     1  UNL1       -0.3815
     14  O         24.3910   -2.0060  -14.5720 O.2     1  UNL1       -0.2921
     15  O         22.5480   -3.8100  -16.5720 O.3     1  UNL1       -0.3874
     16  P         23.2850    2.1030  -13.5920 P.3     1  UNL1        0.4724
     17  H         20.1560   -2.7380  -12.7210 H       1  UNL1        0.2100
     18  H         21.2270    0.5070  -13.1070 H       1  UNL1        0.2100
     19  H         21.4520    1.1760  -14.5370 H       1  UNL1        0.2220
     20  H         24.2190    1.0160  -15.3400 H       1  UNL1        0.2220
     21  H         20.6980   -3.4300  -13.8890 H       1  UNL1        0.2105
     22  H         22.0750   -2.9600  -16.5680 H       1  UNL1        0.2100
     23  H         22.8940   -2.5440  -12.1880 H       1  UNL1        0.0650
     24  H         21.8590   -0.8940  -10.7240 H       1  UNL1        0.0643
     25  H         23.7860   -0.3280  -12.8640 H       1  UNL1        0.0592
     26  H         23.9430   -0.1000  -11.1430 H       1  UNL1        0.0592
     27  H         22.0360   -0.9810  -14.2680 H       1  UNL1        0.0701
     28  H         22.6220   -4.6050  -14.7010 H       1  UNL1        0.0637
     29  H         24.1730   -4.3450  -15.4780 H       1  UNL1        0.0637
@<TRIPOS>BOND
     1     1     2    1
     2     1     4    1
     3     1     7    1
     4     1    23    1
     5     2     3    1
     6     2     8    1
     7     2    24    1
     8     3     9    1
     9     3    25    1
    10     3    26    1
    11     4     5    1
    12     4    13    1
    13     4    27    1
    14     5     6    1
    15     5    14    2
    16     6    15    1
    17     6    28    1
    18     6    29    1
    19     7    17    1
    20     8    18    1
    21     9    16    1
    22    10    16    2
    23    11    16    1
    24    11    19    1
    25    12    16    1
    26    12    20    1
    27    13    21    1
    28    15    22    1
