@<TRIPOS>MOLECULE
LigA.H.pdb
 23 22 0 0 0
SMALL
GASTEIGER

@<TRIPOS>ATOM
      1  C1        15.2460   32.8170   67.6850 C.2   2001  RNS2001     0.1512
      2  O1        16.2920   32.8750   68.3370 O.2   2001  RNS2001    -0.2982
      3  C2        14.8570   31.5160   66.9950 C.3   2001  RNS2001     0.1381
      4  O2        15.9970   30.9300   66.3890 O.3   2001  RNS2001    -0.3819
      5  C3        13.7800   31.7630   65.9400 C.3   2001  RNS2001     0.1158
      6  O3        13.6530   30.6030   65.1260 O.3   2001  RNS2001    -0.3861
      7  C4        14.1080   32.9800   65.0670 C.3   2001  RNS2001     0.1094
      8  O4        15.4580   32.9160   64.6300 O.3   2001  RNS2001    -0.3866
      9  C5        13.1830   33.0320   63.8550 C.3   2001  RNS2001     0.0808
     10  O5        11.8270   33.0210   64.2770 O.3   2001  RNS2001    -0.3894
     11  C6        13.4620   34.3020   63.0650 C.3   2001  RNS2001    -0.0364
     12  H         14.6370   33.6470   67.6080 H     2001  RNS2001     0.1055
     13  H         14.4640   30.8480   67.7320 H     2001  RNS2001     0.0697
     14  H         16.3540   31.5350   65.7200 H     2001  RNS2001     0.2105
     15  H         12.8570   31.9670   66.4420 H     2001  RNS2001     0.0650
     16  H         14.4950   30.4290   64.6770 H     2001  RNS2001     0.2100
     17  H         13.9650   33.8640   65.6520 H     2001  RNS2001     0.0646
     18  H         15.5880   32.1150   64.0990 H     2001  RNS2001     0.2100
     19  H         13.3610   32.1770   63.2370 H     2001  RNS2001     0.0617
     20  H         11.6570   33.7940   64.8380 H     2001  RNS2001     0.2099
     21  H         13.2830   35.1550   63.6860 H     2001  RNS2001     0.0255
     22  H         12.8170   34.3400   62.2120 H     2001  RNS2001     0.0255
     23  H         14.4820   34.3040   62.7420 H     2001  RNS2001     0.0255
@<TRIPOS>BOND
     1     1     2    2
     2     1     3    1
     3     1    12    1
     4     3     4    1
     5     3     5    1
     6     3    13    1
     7     4    14    1
     8     5     6    1
     9     5     7    1
    10     5    15    1
    11     6    16    1
    12     7     8    1
    13     7     9    1
    14     7    17    1
    15     8    18    1
    16     9    10    1
    17     9    11    1
    18     9    19    1
    19    10    20    1
    20    11    21    1
    21    11    22    1
    22    11    23    1
