@<TRIPOS>MOLECULE
CHA
   23    22     1     0     0
SMALL
bcc


@<TRIPOS>ATOM
      1 C1          15.2460    32.8170    67.6850 c       2001 CHA       0.540900
      2 O1          16.2920    32.8750    68.3370 o       2001 CHA      -0.513100
      3 C2          14.8570    31.5160    66.9950 c3      2001 CHA      -0.007900
      4 O2          15.9970    30.9300    66.3890 oh      2001 CHA      -0.584800
      5 C3          13.7800    31.7630    65.9400 c3      2001 CHA       0.086100
      6 O3          13.6530    30.6030    65.1260 oh      2001 CHA      -0.594800
      7 C4          14.1080    32.9800    65.0670 c3      2001 CHA       0.068100
      8 O4          15.4580    32.9160    64.6300 oh      2001 CHA      -0.593800
      9 C5          13.1830    33.0320    63.8550 c3      2001 CHA       0.110100
     10 O5          11.8270    33.0210    64.2770 oh      2001 CHA      -0.594800
     11 C6          13.4620    34.3020    63.0650 c3      2001 CHA      -0.128100
     12 H           14.6370    33.6470    67.6080 h4      2001 CHA       0.011200
     13 H1          14.4640    30.8480    67.7320 h1      2001 CHA       0.106700
     14 H2          16.3540    31.5350    65.7200 ho      2001 CHA       0.428000
     15 H3          12.8570    31.9670    66.4420 h1      2001 CHA       0.104700
     16 H4          14.4950    30.4290    64.6770 ho      2001 CHA       0.422000
     17 H5          13.9650    33.8640    65.6520 h1      2001 CHA       0.085700
     18 H6          15.5880    32.1150    64.0990 ho      2001 CHA       0.413000
     19 H7          13.3610    32.1770    63.2370 h1      2001 CHA       0.087700
     20 H8          11.6570    33.7940    64.8380 ho      2001 CHA       0.401000
     21 H9          13.2830    35.1550    63.6860 hc      2001 CHA       0.051033
     22 H10         12.8170    34.3400    62.2120 hc      2001 CHA       0.051033
     23 H11         14.4820    34.3040    62.7420 hc      2001 CHA       0.051033
@<TRIPOS>BOND
     1     1     2 2   
     2     1     3 1   
     3     1    12 1   
     4     3     4 1   
     5     3     5 1   
     6     3    13 1   
     7     4    14 1   
     8     5     6 1   
     9     5     7 1   
    10     5    15 1   
    11     6    16 1   
    12     7     8 1   
    13     7     9 1   
    14     7    17 1   
    15     8    18 1   
    16     9    10 1   
    17     9    11 1   
    18     9    19 1   
    19    10    20 1   
    20    11    21 1   
    21    11    22 1   
    22    11    23 1   
@<TRIPOS>SUBSTRUCTURE
     1 CHA         1 TEMP              0 ****  ****    0 ROOT
